data/9bus/9BusSystemCDF.mod.txt
 30/07/05 UW ARCHIVE           100.0  2005 W Anderson9BusTest Case
BUS DATA FOLLOWS                             9 ITEMS
   1 Bus1  16.5kV  1  1  3 1.040    0.0      0.0      0.0      0.0     0.0    16.5  1.040   500.0  -500.0   0.0    0.0        0
   2 Bus2    18kV  1  1  2 1.025    0.0      0.0      0.0    163.0     0.0    18.0  1.025    99.0   -99.0   0.0    0.0        0
   3 Bus3  13.8kV  1  1  2 1.025    0.0      0.0      0.0     85.0     0.0    13.8  1.025    99.0   -99.0   0.0    0.0        0
   4 Bus4   230kV  1  1  0 1.000    0.0      0.0      0.0      0.0     0.0   230.0  0.000     0.0     0.0   0.0    0.0        0
   5 Bus5   230kV  1  1  0 1.000    0.0    125.0     50.0      0.0     0.0   230.0  0.000     0.0     0.0   0.0    0.0        0
   6 Bus6   230kV  1  1  0 1.000    0.0     90.0     30.0      0.0     0.0   230.0  0.000     0.0     0.0   0.0    0.0        0
   7 Bus7   230kV  1  1  0 1.000    0.0      0.0      0.0      0.0     0.0   230.0  0.000     0.0     0.0   0.0    0.0        0
   8 Bus8   230kV  1  1  0 1.000    0.0    100.0     35.0      0.0     0.0   230.0  0.000     0.0     0.0   0.0    0.0        0
   9 Bus9   230kV  1  1  0 1.000    0.0      0.0      0.0      0.0     0.0   230.0  0.000     0.0     0.0   0.0    0.0        0
-999 
BRANCH DATA FOLLOWS                          9 ITEMS
   1    4  1  1 1 1  0.0000    0.0576      0.0000     0     0     0    0 0  1.0       0.0 0.0    0.0     0.0    0.0   0.0
   2    7  1  1 1 1  0.0000    0.0625      0.0000     0     0     0    0 0  1.0       0.0 0.0    0.0     0.0    0.0   0.0
   3    9  1  1 1 1  0.0000    0.0586      0.0000     0     0     0    0 0  1.0       0.0 0.0    0.0     0.0    0.0   0.0
   4    5  1  1 1 0  0.0100    0.0850      0.1760     0     0     0    0 0  0.0       0.0 0.0    0.0     0.0    0.0   0.0
   4    6  1  1 1 0  0.0170    0.0920      0.1580     0     0     0    0 0  0.0       0.0 0.0    0.0     0.0    0.0   0.0
   5    7  1  1 1 0  0.0320    0.1610      0.3060     0     0     0    0 0  0.0       0.0 0.0    0.0     0.0    0.0   0.0
   6    9  1  1 1 0  0.0390    0.1700      0.3580     0     0     0    0 0  0.0       0.0 0.0    0.0     0.0    0.0   0.0
   7    8  1  1 1 0  0.0085    0.0720      0.1490     0     0     0    0 0  0.0       0.0 0.0    0.0     0.0    0.0   0.0
   8    9  1  1 1 0  0.0119    0.1008      0.2090     0     0     0    0 0  0.0       0.0 0.0    0.0     0.0    0.0   0.0
-999
END OF DATA
